!-Generator IDFEditor 1.51
!-Option SortedOrder

!-NOTE: All comments with '!-' are ignored by the IDFEditor and are generated automatically.
!-      Use '!' comments if they need to be retained when using the IDFEditor.


!-   ===========  ALL OBJECTS IN CLASS: VERSION ===========

Version,
    9.3;                     !- Version Identifier


!-   ===========  ALL OBJECTS IN CLASS: SIMULATIONCONTROL ===========

SimulationControl,
    Yes,                     !- Do Zone Sizing Calculation
    Yes,                     !- Do System Sizing Calculation
    Yes,                     !- Do Plant Sizing Calculation
    No,                      !- Run Simulation for Sizing Periods
    Yes;                     !- Run Simulation for Weather File Run Periods


!-   ===========  ALL OBJECTS IN CLASS: BUILDING ===========

Building,
    Data Center Building,    !- Name
    ,                        !- North Axis {deg}
    ,                        !- Terrain
    0.04,                    !- Loads Convergence Tolerance Value {W}
    0.004,                   !- Temperature Convergence Tolerance Value {deltaC}
    MinimalShadowing,        !- Solar Distribution
    30,                      !- Maximum Number of Warmup Days
    6;                       !- Minimum Number of Warmup Days


!-   ===========  ALL OBJECTS IN CLASS: SURFACECONVECTIONALGORITHM:INSIDE ===========

SurfaceConvectionAlgorithm:Inside,
    TARP;                    !- Algorithm


!-   ===========  ALL OBJECTS IN CLASS: SURFACECONVECTIONALGORITHM:OUTSIDE ===========

SurfaceConvectionAlgorithm:Outside,
    DOE-2;                   !- Algorithm


!-   ===========  ALL OBJECTS IN CLASS: HEATBALANCEALGORITHM ===========

HeatBalanceAlgorithm,
    ConductionTransferFunction,  !- Algorithm
    500;                     !- Surface Temperature Upper Limit {C}


!-   ===========  ALL OBJECTS IN CLASS: TIMESTEP ===========

Timestep,
    4;                       !- Number of Timesteps per Hour


!-   ===========  ALL OBJECTS IN CLASS: SITE:LOCATION ===========

Site:Location,
    SINGAPORE,               !- Name
    1.37,                    !- Latitude {deg}
    103.98,                  !- Longitude {deg}
    8,                       !- Time Zone {hr}
    16;                      !- Elevation {m}


!-   ===========  ALL OBJECTS IN CLASS: SIZINGPERIOD:DESIGNDAY ===========

SizingPeriod:DesignDay,
    SINGAPORE Ann Clg .4% Condns DB=>MWB,  !- Name
    6,                       !- Month
    21,                      !- Day of Month
    SummerDesignDay,         !- Day Type
    33.2,                    !- Maximum Dry-Bulb Temperature {C}
    5.5,                     !- Daily Dry-Bulb Temperature Range {deltaC}
    DefaultMultipliers,      !- Dry-Bulb Temperature Range Modifier Type
    ,                        !- Dry-Bulb Temperature Range Modifier Day Schedule Name
    Wetbulb,                 !- Humidity Condition Type
    26.4,                    !- Wetbulb or DewPoint at Maximum Dry-Bulb {C}
    ,                        !- Humidity Condition Day Schedule Name
    ,                        !- Humidity Ratio at Maximum Dry-Bulb {kgWater/kgDryAir}
    ,                        !- Enthalpy at Maximum Dry-Bulb {J/kg}
    ,                        !- Daily Wet-Bulb Temperature Range {deltaC}
    101133,                  !- Barometric Pressure {Pa}
    4.1,                     !- Wind Speed {m/s}
    30,                      !- Wind Direction {deg}
    No,                      !- Rain Indicator
    No,                      !- Snow Indicator
    No,                      !- Daylight Saving Time Indicator
    ASHRAETau,               !- Solar Model Indicator
    ,                        !- Beam Solar Day Schedule Name
    ,                        !- Diffuse Solar Day Schedule Name
    0.494,                   !- ASHRAE Clear Sky Optical Depth for Beam Irradiance (taub) {dimensionless}
    2.03;                    !- ASHRAE Clear Sky Optical Depth for Diffuse Irradiance (taud) {dimensionless}

SizingPeriod:DesignDay,
    SINGAPORE Ann Clg .4% Condns DP=>MDB,  !- Name
    6,                       !- Month
    21,                      !- Day of Month
    SummerDesignDay,         !- Day Type
    29.5,                    !- Maximum Dry-Bulb Temperature {C}
    5.5,                     !- Daily Dry-Bulb Temperature Range {deltaC}
    DefaultMultipliers,      !- Dry-Bulb Temperature Range Modifier Type
    ,                        !- Dry-Bulb Temperature Range Modifier Day Schedule Name
    Dewpoint,                !- Humidity Condition Type
    27,                      !- Wetbulb or DewPoint at Maximum Dry-Bulb {C}
    ,                        !- Humidity Condition Day Schedule Name
    ,                        !- Humidity Ratio at Maximum Dry-Bulb {kgWater/kgDryAir}
    ,                        !- Enthalpy at Maximum Dry-Bulb {J/kg}
    ,                        !- Daily Wet-Bulb Temperature Range {deltaC}
    101133,                  !- Barometric Pressure {Pa}
    4.1,                     !- Wind Speed {m/s}
    30,                      !- Wind Direction {deg}
    No,                      !- Rain Indicator
    No,                      !- Snow Indicator
    No,                      !- Daylight Saving Time Indicator
    ASHRAETau,               !- Solar Model Indicator
    ,                        !- Beam Solar Day Schedule Name
    ,                        !- Diffuse Solar Day Schedule Name
    0.494,                   !- ASHRAE Clear Sky Optical Depth for Beam Irradiance (taub) {dimensionless}
    2.03;                    !- ASHRAE Clear Sky Optical Depth for Diffuse Irradiance (taud) {dimensionless}

SizingPeriod:DesignDay,
    SINGAPORE Ann Clg .4% Condns Enth=>MDB,  !- Name
    6,                       !- Month
    21,                      !- Day of Month
    SummerDesignDay,         !- Day Type
    30.9,                    !- Maximum Dry-Bulb Temperature {C}
    5.5,                     !- Daily Dry-Bulb Temperature Range {deltaC}
    DefaultMultipliers,      !- Dry-Bulb Temperature Range Modifier Type
    ,                        !- Dry-Bulb Temperature Range Modifier Day Schedule Name
    Enthalpy,                !- Humidity Condition Type
    ,                        !- Wetbulb or DewPoint at Maximum Dry-Bulb {C}
    ,                        !- Humidity Condition Day Schedule Name
    ,                        !- Humidity Ratio at Maximum Dry-Bulb {kgWater/kgDryAir}
    88500,                   !- Enthalpy at Maximum Dry-Bulb {J/kg}
    ,                        !- Daily Wet-Bulb Temperature Range {deltaC}
    101133,                  !- Barometric Pressure {Pa}
    4.1,                     !- Wind Speed {m/s}
    30,                      !- Wind Direction {deg}
    No,                      !- Rain Indicator
    No,                      !- Snow Indicator
    No,                      !- Daylight Saving Time Indicator
    ASHRAETau,               !- Solar Model Indicator
    ,                        !- Beam Solar Day Schedule Name
    ,                        !- Diffuse Solar Day Schedule Name
    0.494,                   !- ASHRAE Clear Sky Optical Depth for Beam Irradiance (taub) {dimensionless}
    2.03;                    !- ASHRAE Clear Sky Optical Depth for Diffuse Irradiance (taud) {dimensionless}

SizingPeriod:DesignDay,
    SINGAPORE Ann Clg .4% Condns WB=>MDB,  !- Name
    6,                       !- Month
    21,                      !- Day of Month
    SummerDesignDay,         !- Day Type
    30.7,                    !- Maximum Dry-Bulb Temperature {C}
    5.5,                     !- Daily Dry-Bulb Temperature Range {deltaC}
    DefaultMultipliers,      !- Dry-Bulb Temperature Range Modifier Type
    ,                        !- Dry-Bulb Temperature Range Modifier Day Schedule Name
    Wetbulb,                 !- Humidity Condition Type
    27.7,                    !- Wetbulb or DewPoint at Maximum Dry-Bulb {C}
    ,                        !- Humidity Condition Day Schedule Name
    ,                        !- Humidity Ratio at Maximum Dry-Bulb {kgWater/kgDryAir}
    ,                        !- Enthalpy at Maximum Dry-Bulb {J/kg}
    ,                        !- Daily Wet-Bulb Temperature Range {deltaC}
    101133,                  !- Barometric Pressure {Pa}
    4.1,                     !- Wind Speed {m/s}
    30,                      !- Wind Direction {deg}
    No,                      !- Rain Indicator
    No,                      !- Snow Indicator
    No,                      !- Daylight Saving Time Indicator
    ASHRAETau,               !- Solar Model Indicator
    ,                        !- Beam Solar Day Schedule Name
    ,                        !- Diffuse Solar Day Schedule Name
    0.494,                   !- ASHRAE Clear Sky Optical Depth for Beam Irradiance (taub) {dimensionless}
    2.03;                    !- ASHRAE Clear Sky Optical Depth for Diffuse Irradiance (taud) {dimensionless}

SizingPeriod:DesignDay,
    SINGAPORE Ann Htg 99.6% Condns DB,  !- Name
    12,                      !- Month
    21,                      !- Day of Month
    WinterDesignDay,         !- Day Type
    23,                      !- Maximum Dry-Bulb Temperature {C}
    0,                       !- Daily Dry-Bulb Temperature Range {deltaC}
    DefaultMultipliers,      !- Dry-Bulb Temperature Range Modifier Type
    ,                        !- Dry-Bulb Temperature Range Modifier Day Schedule Name
    Wetbulb,                 !- Humidity Condition Type
    23,                      !- Wetbulb or DewPoint at Maximum Dry-Bulb {C}
    ,                        !- Humidity Condition Day Schedule Name
    ,                        !- Humidity Ratio at Maximum Dry-Bulb {kgWater/kgDryAir}
    ,                        !- Enthalpy at Maximum Dry-Bulb {J/kg}
    ,                        !- Daily Wet-Bulb Temperature Range {deltaC}
    101133,                  !- Barometric Pressure {Pa}
    2,                       !- Wind Speed {m/s}
    320,                     !- Wind Direction {deg}
    No,                      !- Rain Indicator
    No,                      !- Snow Indicator
    No,                      !- Daylight Saving Time Indicator
    ASHRAEClearSky,          !- Solar Model Indicator
    ,                        !- Beam Solar Day Schedule Name
    ,                        !- Diffuse Solar Day Schedule Name
    ,                        !- ASHRAE Clear Sky Optical Depth for Beam Irradiance (taub) {dimensionless}
    ,                        !- ASHRAE Clear Sky Optical Depth for Diffuse Irradiance (taud) {dimensionless}
    0;                       !- Sky Clearness

SizingPeriod:DesignDay,
    SINGAPORE Ann Htg Wind 99.6% Condns WS=>MCDB,  !- Name
    12,                      !- Month
    21,                      !- Day of Month
    WinterDesignDay,         !- Day Type
    28,                      !- Maximum Dry-Bulb Temperature {C}
    0,                       !- Daily Dry-Bulb Temperature Range {deltaC}
    DefaultMultipliers,      !- Dry-Bulb Temperature Range Modifier Type
    ,                        !- Dry-Bulb Temperature Range Modifier Day Schedule Name
    Wetbulb,                 !- Humidity Condition Type
    28,                      !- Wetbulb or DewPoint at Maximum Dry-Bulb {C}
    ,                        !- Humidity Condition Day Schedule Name
    ,                        !- Humidity Ratio at Maximum Dry-Bulb {kgWater/kgDryAir}
    ,                        !- Enthalpy at Maximum Dry-Bulb {J/kg}
    ,                        !- Daily Wet-Bulb Temperature Range {deltaC}
    101133,                  !- Barometric Pressure {Pa}
    8.3,                     !- Wind Speed {m/s}
    320,                     !- Wind Direction {deg}
    No,                      !- Rain Indicator
    No,                      !- Snow Indicator
    No,                      !- Daylight Saving Time Indicator
    ASHRAEClearSky,          !- Solar Model Indicator
    ,                        !- Beam Solar Day Schedule Name
    ,                        !- Diffuse Solar Day Schedule Name
    ,                        !- ASHRAE Clear Sky Optical Depth for Beam Irradiance (taub) {dimensionless}
    ,                        !- ASHRAE Clear Sky Optical Depth for Diffuse Irradiance (taud) {dimensionless}
    0;                       !- Sky Clearness

SizingPeriod:DesignDay,
    SINGAPORE Ann Hum_n 99.6% Condns DP=>MCDB,  !- Name
    12,                      !- Month
    21,                      !- Day of Month
    WinterDesignDay,         !- Day Type
    28.4,                    !- Maximum Dry-Bulb Temperature {C}
    0,                       !- Daily Dry-Bulb Temperature Range {deltaC}
    DefaultMultipliers,      !- Dry-Bulb Temperature Range Modifier Type
    ,                        !- Dry-Bulb Temperature Range Modifier Day Schedule Name
    Dewpoint,                !- Humidity Condition Type
    20.9,                    !- Wetbulb or DewPoint at Maximum Dry-Bulb {C}
    ,                        !- Humidity Condition Day Schedule Name
    ,                        !- Humidity Ratio at Maximum Dry-Bulb {kgWater/kgDryAir}
    ,                        !- Enthalpy at Maximum Dry-Bulb {J/kg}
    ,                        !- Daily Wet-Bulb Temperature Range {deltaC}
    101133,                  !- Barometric Pressure {Pa}
    2,                       !- Wind Speed {m/s}
    320,                     !- Wind Direction {deg}
    No,                      !- Rain Indicator
    No,                      !- Snow Indicator
    No,                      !- Daylight Saving Time Indicator
    ASHRAEClearSky,          !- Solar Model Indicator
    ,                        !- Beam Solar Day Schedule Name
    ,                        !- Diffuse Solar Day Schedule Name
    ,                        !- ASHRAE Clear Sky Optical Depth for Beam Irradiance (taub) {dimensionless}
    ,                        !- ASHRAE Clear Sky Optical Depth for Diffuse Irradiance (taud) {dimensionless}
    0;                       !- Sky Clearness


!-   ===========  ALL OBJECTS IN CLASS: RUNPERIOD ===========

RunPeriod,
    Run Period 1,            !- Name
    1,                       !- Begin Month
    1,                       !- Begin Day of Month
    2006,                    !- Begin Year
    12,                      !- End Month
    31,                      !- End Day of Month
    2006,                    !- End Year
    Sunday,                  !- Day of Week for Start Day
    No,                      !- Use Weather File Holidays and Special Days
    No,                      !- Use Weather File Daylight Saving Period
    No,                      !- Apply Weekend Holiday Rule
    Yes,                     !- Use Weather File Rain Indicators
    Yes;                     !- Use Weather File Snow Indicators


!-   ===========  ALL OBJECTS IN CLASS: SITE:GROUNDTEMPERATURE:BUILDINGSURFACE ===========

Site:GroundTemperature:BuildingSurface,
    20.03,                   !- January Ground Temperature {C}
    20.03,                   !- February Ground Temperature {C}
    20.13,                   !- March Ground Temperature {C}
    20.3,                    !- April Ground Temperature {C}
    20.43,                   !- May Ground Temperature {C}
    20.52,                   !- June Ground Temperature {C}
    20.62,                   !- July Ground Temperature {C}
    20.77,                   !- August Ground Temperature {C}
    20.78,                   !- September Ground Temperature {C}
    20.55,                   !- October Ground Temperature {C}
    20.44,                   !- November Ground Temperature {C}
    20.2;                    !- December Ground Temperature {C}


!-   ===========  ALL OBJECTS IN CLASS: SITE:GROUNDTEMPERATURE:SHALLOW ===========

Site:GroundTemperature:Shallow,
    20.03,                   !- January Surface Ground Temperature {C}
    20.03,                   !- February Surface Ground Temperature {C}
    20.13,                   !- March Surface Ground Temperature {C}
    20.3,                    !- April Surface Ground Temperature {C}
    20.43,                   !- May Surface Ground Temperature {C}
    20.52,                   !- June Surface Ground Temperature {C}
    20.62,                   !- July Surface Ground Temperature {C}
    20.77,                   !- August Surface Ground Temperature {C}
    20.78,                   !- September Surface Ground Temperature {C}
    20.55,                   !- October Surface Ground Temperature {C}
    20.44,                   !- November Surface Ground Temperature {C}
    20.2;                    !- December Surface Ground Temperature {C}


!-   ===========  ALL OBJECTS IN CLASS: SITE:GROUNDTEMPERATURE:DEEP ===========

Site:GroundTemperature:Deep,
    16.1,                    !- January Deep Ground Temperature {C}
    16.1,                    !- February Deep Ground Temperature {C}
    16.1,                    !- March Deep Ground Temperature {C}
    16.1,                    !- April Deep Ground Temperature {C}
    16.1,                    !- May Deep Ground Temperature {C}
    16.1,                    !- June Deep Ground Temperature {C}
    16.1,                    !- July Deep Ground Temperature {C}
    16.1,                    !- August Deep Ground Temperature {C}
    16.1,                    !- September Deep Ground Temperature {C}
    16.1,                    !- October Deep Ground Temperature {C}
    16.1,                    !- November Deep Ground Temperature {C}
    16.1;                    !- December Deep Ground Temperature {C}


!-   ===========  ALL OBJECTS IN CLASS: SCHEDULETYPELIMITS ===========

ScheduleTypeLimits,
    East Zone Thermostat Schedule Type Limits,  !- Name
    0,                       !- Lower Limit Value
    4,                       !- Upper Limit Value
    DISCRETE;                !- Numeric Type

ScheduleTypeLimits,
    Temperature,             !- Name
    ,                        !- Lower Limit Value
    ,                        !- Upper Limit Value
    Continuous,              !- Numeric Type
    temperature;             !- Unit Type

ScheduleTypeLimits,
    East Zone 2 Thermostat Schedule Type Limits,  !- Name
    0,                       !- Lower Limit Value
    4,                       !- Upper Limit Value
    DISCRETE;                !- Numeric Type

ScheduleTypeLimits,
    West Zone Thermostat Schedule Type Limits,  !- Name
    0,                       !- Lower Limit Value
    4,                       !- Upper Limit Value
    DISCRETE;                !- Numeric Type

ScheduleTypeLimits,
    West Zone 2 Thermostat Schedule Type Limits,  !- Name
    0,                       !- Lower Limit Value
    4,                       !- Upper Limit Value
    DISCRETE;                !- Numeric Type

ScheduleTypeLimits,
    ActivityLevel,           !- Name
    0,                       !- Lower Limit Value
    ,                        !- Upper Limit Value
    Continuous,              !- Numeric Type
    activitylevel;           !- Unit Type

ScheduleTypeLimits,
    Capacity,                !- Name
    0,                       !- Lower Limit Value
    ,                        !- Upper Limit Value
    Continuous,              !- Numeric Type
    capacity;                !- Unit Type

ScheduleTypeLimits,
    Any Number;              !- Name

ScheduleTypeLimits,
    DeltaTemperature,        !- Name
    ,                        !- Lower Limit Value
    ,                        !- Upper Limit Value
    Continuous,              !- Numeric Type
    deltatemperature;        !- Unit Type

ScheduleTypeLimits,
    Dimensionless,           !- Name
    ,                        !- Lower Limit Value
    ,                        !- Upper Limit Value
    Continuous;              !- Numeric Type

ScheduleTypeLimits,
    Dimensionless 1,         !- Name
    -1,                      !- Lower Limit Value
    1,                       !- Upper Limit Value
    Continuous;              !- Numeric Type

ScheduleTypeLimits,
    Dimensionless 2,         !- Name
    0.1,                     !- Lower Limit Value
    1000,                    !- Upper Limit Value
    Continuous;              !- Numeric Type

ScheduleTypeLimits,
    Dimensionless 3,         !- Name
    0,                       !- Lower Limit Value
    1,                       !- Upper Limit Value
    Continuous,              !- Numeric Type
    dimensionless;           !- Unit Type

ScheduleTypeLimits,
    Fraction,                !- Name
    0,                       !- Lower Limit Value
    1,                       !- Upper Limit Value
    CONTINUOUS;              !- Numeric Type

ScheduleTypeLimits,
    Fractional,              !- Name
    0,                       !- Lower Limit Value
    1,                       !- Upper Limit Value
    Continuous;              !- Numeric Type

ScheduleTypeLimits,
    OnOff,                   !- Name
    0,                       !- Lower Limit Value
    1,                       !- Upper Limit Value
    Discrete,                !- Numeric Type
    availability;            !- Unit Type

ScheduleTypeLimits,
    OnOff 1,                 !- Name
    0,                       !- Lower Limit Value
    1,                       !- Upper Limit Value
    Discrete,                !- Numeric Type
    availability;            !- Unit Type

ScheduleTypeLimits,
    Percent,                 !- Name
    0,                       !- Lower Limit Value
    100,                     !- Upper Limit Value
    Continuous,              !- Numeric Type
    percent;                 !- Unit Type

ScheduleTypeLimits,
    Temperature 1,           !- Name
    -50,                     !- Lower Limit Value
    50,                      !- Upper Limit Value
    Continuous,              !- Numeric Type
    temperature;             !- Unit Type

ScheduleTypeLimits,
    Temperature 2,           !- Name
    0,                       !- Lower Limit Value
    50,                      !- Upper Limit Value
    Continuous,              !- Numeric Type
    temperature;             !- Unit Type

ScheduleTypeLimits,
    Velocity,                !- Name
    0,                       !- Lower Limit Value
    ,                        !- Upper Limit Value
    Continuous,              !- Numeric Type
    velocity;                !- Unit Type

ScheduleTypeLimits,
    ZoneEqList ScheduleTypeLimts,  !- Name
    0.0,                     !- Lower Limit Value
    1.0,                     !- Upper Limit Value
    Continuous;              !- Numeric Type


!-   ===========  ALL OBJECTS IN CLASS: SCHEDULE:DAY:INTERVAL ===========

Schedule:Day:Interval,
    Schedule Day 26,         !- Name
    Temperature,             !- Schedule Type Limits Name
    No,                      !- Interpolate to Timestep
    07:00,                   !- Time 1 {hh:mm}
    18,                      !- Value Until Time 1
    17:00,                   !- Time 2 {hh:mm}
    18,                      !- Value Until Time 2
    24:00,                   !- Time 3 {hh:mm}
    18;                      !- Value Until Time 3

Schedule:Day:Interval,
    Schedule Day 14,         !- Name
    Temperature,             !- Schedule Type Limits Name
    No,                      !- Interpolate to Timestep
    07:00,                   !- Time 1 {hh:mm}
    25,                      !- Value Until Time 1
    17:00,                   !- Time 2 {hh:mm}
    25,                      !- Value Until Time 2
    24:00,                   !- Time 3 {hh:mm}
    25;                      !- Value Until Time 3

Schedule:Day:Interval,
    Chilled_Water_Temperature_Default,  !- Name
    Temperature 2,           !- Schedule Type Limits Name
    No,                      !- Interpolate to Timestep
    24:00,                   !- Time 1 {hh:mm}
    6.7;                     !- Value Until Time 1

Schedule:Day:Interval,
    Chilled_Water_Temperature_Default 1,  !- Name
    Temperature 2,           !- Schedule Type Limits Name
    No,                      !- Interpolate to Timestep
    24:00,                   !- Time 1 {hh:mm}
    6.7;                     !- Value Until Time 1

Schedule:Day:Interval,
    Chilled_Water_Temperature_Summer_Design_Day,  !- Name
    Temperature 2,           !- Schedule Type Limits Name
    No,                      !- Interpolate to Timestep
    24:00,                   !- Time 1 {hh:mm}
    6.7;                     !- Value Until Time 1

Schedule:Day:Interval,
    Chilled_Water_Temperature_Summer_Design_Day 1,  !- Name
    Temperature 2,           !- Schedule Type Limits Name
    No,                      !- Interpolate to Timestep
    24:00,                   !- Time 1 {hh:mm}
    6.7;                     !- Value Until Time 1

Schedule:Day:Interval,
    Chilled_Water_Temperature_Winter_Design_Day,  !- Name
    Temperature 2,           !- Schedule Type Limits Name
    No,                      !- Interpolate to Timestep
    24:00,                   !- Time 1 {hh:mm}
    6.7;                     !- Value Until Time 1

Schedule:Day:Interval,
    Chilled_Water_Temperature_Winter_Design_Day 1,  !- Name
    Temperature 2,           !- Schedule Type Limits Name
    No,                      !- Interpolate to Timestep
    24:00,                   !- Time 1 {hh:mm}
    6.7;                     !- Value Until Time 1

Schedule:Day:Interval,
    Deck_Temperature_Default,!- Name
    Temperature 2,           !- Schedule Type Limits Name
    No,                      !- Interpolate to Timestep
    24:00,                   !- Time 1 {hh:mm}
    12.8;                    !- Value Until Time 1

Schedule:Day:Interval,
    Deck_Temperature_Default 1,  !- Name
    Temperature 2,           !- Schedule Type Limits Name
    No,                      !- Interpolate to Timestep
    24:00,                   !- Time 1 {hh:mm}
    12.8;                    !- Value Until Time 1

Schedule:Day:Interval,
    Deck_Temperature_Summer_Design_Day,  !- Name
    Temperature 2,           !- Schedule Type Limits Name
    No,                      !- Interpolate to Timestep
    24:00,                   !- Time 1 {hh:mm}
    12.8;                    !- Value Until Time 1

Schedule:Day:Interval,
    Deck_Temperature_Summer_Design_Day 1,  !- Name
    Temperature 2,           !- Schedule Type Limits Name
    No,                      !- Interpolate to Timestep
    24:00,                   !- Time 1 {hh:mm}
    12.8;                    !- Value Until Time 1

Schedule:Day:Interval,
    Deck_Temperature_Winter_Design_Day,  !- Name
    Temperature 2,           !- Schedule Type Limits Name
    No,                      !- Interpolate to Timestep
    24:00,                   !- Time 1 {hh:mm}
    12.8;                    !- Value Until Time 1

Schedule:Day:Interval,
    Deck_Temperature_Winter_Design_Day 1,  !- Name
    Temperature 2,           !- Schedule Type Limits Name
    No,                      !- Interpolate to Timestep
    24:00,                   !- Time 1 {hh:mm}
    12.8;                    !- Value Until Time 1

Schedule:Day:Interval,
    Hot_Water_Temperature_Default,  !- Name
    Temperature 2,           !- Schedule Type Limits Name
    No,                      !- Interpolate to Timestep
    24:00,                   !- Time 1 {hh:mm}
    49.3087577819824;        !- Value Until Time 1

Schedule:Day:Interval,
    Hot_Water_Temperature_Default 1,  !- Name
    Temperature 2,           !- Schedule Type Limits Name
    No,                      !- Interpolate to Timestep
    24:00,                   !- Time 1 {hh:mm}
    49.0804824829102;        !- Value Until Time 1

Schedule:Day:Interval,
    Hot_Water_Temperature_Summer_Design_Day,  !- Name
    Temperature 2,           !- Schedule Type Limits Name
    No,                      !- Interpolate to Timestep
    24:00,                   !- Time 1 {hh:mm}
    48.3956604003906;        !- Value Until Time 1

Schedule:Day:Interval,
    Hot_Water_Temperature_Summer_Design_Day 1,  !- Name
    Temperature 2,           !- Schedule Type Limits Name
    No,                      !- Interpolate to Timestep
    24:00,                   !- Time 1 {hh:mm}
    48.6239356994629;        !- Value Until Time 1

Schedule:Day:Interval,
    Hot_Water_Temperature_Winter_Design_Day,  !- Name
    Temperature 2,           !- Schedule Type Limits Name
    No,                      !- Interpolate to Timestep
    24:00,                   !- Time 1 {hh:mm}
    48.5097999572754;        !- Value Until Time 1

Schedule:Day:Interval,
    Hot_Water_Temperature_Winter_Design_Day 1,  !- Name
    Temperature 2,           !- Schedule Type Limits Name
    No,                      !- Interpolate to Timestep
    24:00,                   !- Time 1 {hh:mm}
    49.4228973388672;        !- Value Until Time 1

Schedule:Day:Interval,
    Office Infil Quarter On Default Schedule,  !- Name
    Fraction,                !- Schedule Type Limits Name
    No,                      !- Interpolate to Timestep
    06:00,                   !- Time 1 {hh:mm}
    1,                       !- Value Until Time 1
    22:00,                   !- Time 2 {hh:mm}
    0.25,                    !- Value Until Time 2
    24:00,                   !- Time 3 {hh:mm}
    1;                       !- Value Until Time 3

Schedule:Day:Interval,
    Office Infil Quarter On Rule 1 Day Schedule,  !- Name
    Fraction,                !- Schedule Type Limits Name
    No,                      !- Interpolate to Timestep
    24:00,                   !- Time 1 {hh:mm}
    1;                       !- Value Until Time 1

Schedule:Day:Interval,
    Office Infil Quarter On Rule 2 Day Schedule,  !- Name
    Fraction,                !- Schedule Type Limits Name
    No,                      !- Interpolate to Timestep
    06:00,                   !- Time 1 {hh:mm}
    1,                       !- Value Until Time 1
    18:00,                   !- Time 2 {hh:mm}
    0.25,                    !- Value Until Time 2
    24:00,                   !- Time 3 {hh:mm}
    1;                       !- Value Until Time 3

Schedule:Day:Interval,
    Office Infil Quarter On Summer Design Day,  !- Name